/*--------------------------------*- C++ -*----------------------------------*\
  =========                 |
  \\      /  F ield         | OpenFOAM: The Open Source CFD Toolbox
   \\    /   O peration     | Website:  https://openfoam.org
    \\  /    A nd           | Version:  7
     \\/     M anipulation  |
\*---------------------------------------------------------------------------*/
FoamFile
{
    version     2.0;
    format      ascii;
    class       volScalarField;
    location    "0";
    object      T;
}
// * * * * * * * * * * * * * * * * * * * * * * * * * * * * * * * * * * * * * //

dimensions      [0 0 0 1 0 0 0];

internalField   uniform 291;

boundaryField
{
    top
    {
        type            zeroGradient;
    }
    H2inlet
    {
        type            fixedValue;
        value           uniform 291;
    }
    Airinlet
    {
        type            inletOutlet;
        inletValue      uniform 291;
        value           $internalField;
    }
    outlet
    {
        type            inletOutlet;
        inletValue      uniform 291;
        value           $internalField;
    }
    bottom
    {
        type            symmetryPlane;
    }
    reservoirWall
    {
        type            zeroGradient;
    }
    Obstacle
    {
        type            zeroGradient;
    }
    frontAndBack
    {
        type            empty;
    }
}


// ************************************************************************* //
