/*--------------------------------*- C++ -*----------------------------------*\
  =========                 |
  \\      /  F ield         | OpenFOAM: The Open Source CFD Toolbox
   \\    /   O peration     | Website:  https://openfoam.org
    \\  /    A nd           | Version:  7
     \\/     M anipulation  |
\*---------------------------------------------------------------------------*/
/*---------------------------------------------------------------------------*\
	Keivan A.Gh				| November 2020
						| Version: 1
	These Coefficients are based on NASA 7 transport polynomials and NASA 9 
	thermo polynomials, in combination with specific ideal gas equations of  
 	state for each of these species. (H2: Leachman, O2:Woolly, N2:Span) 
\*---------------------------------------------------------------------------*/
FoamFile
{
    version     2.0;
    format      ascii;
    class       dictionary;
    location    "constant";
    object      thermo.compressibleGas;
}
// * * * * * * * * * * * * * * * * * * * * * * * * * * * * * * * * * * * * * //
O2
{
    specie
    {
        molWeight       	31.99880;
    }
    thermodynamics
    {
        Tlow            	10;
        Thigh           	6000;
        Tcommon1        	300;
	Tcommon2		1000;
        highCpCoeffs    	( -1.037939022e+06 2.344830282e+03 1.819732036 1.267847582e-03 -2.188067988e-07 2.053719572e-11 -8.193467050e-16 -1.689010929e+04 1.738716506e+01 );
	midCpCoeffs		( -3.425563420e+04 4.847000970e+02 1.119010961 4.293889240e-03 -6.836300520e-07 -2.023372700e-09 1.039040018e-12 -3.391454870e+03 1.849699470e+01 );
        lowCpCoeffs     	( -0.17648260350863987 0.6683783566972065 3.4751127770152572 0.0004090685462294075 -2.7857436034490034e-06 6.673120289909645e-09 6.120975676491904e-13 -1046.9564617109088 4.811436023617842 );
    }
    transport
    {
        Tlow			90.2;
        Thigh			6000;
	Tcommon			1000;
	highMuKappaCoeffs	( 0.63839563 -0.12344438e+01 -0.22885810e+05 0.18056937e+01 0.80805788 0.11982181e+03 -0.47335931e+05 0.95189193 );
	lowMuKappaCoeffs	( 0.6148139161181673 -55.019686999527096 710.3199361179903 2.0000703788706247 0.772734006169922 -49.134046555034466 395.2853478841008 1.314544457729383 );
    }
    elements
    {
        O               	2;
    }
    equationOfState
    {
	Tc			154.6;
	Vc			73.4e-03;
	Zc			0.288;
	Pc			50.43e05;
	omega			0.022;
    }
}

H2
{
    specie
    {
        molWeight       	2.01588;
    }
    thermodynamics
    {
        Tlow            	50;
        Thigh           	6000;
	Tcommon1		300;
        Tcommon2        	1000;
        highCpCoeffs		( 5.608128010e+05 -8.371504740e+02 2.975364532 1.252249124e-03 -3.740716190e-07 5.936625200e-11 -3.606994100e-15 5.339824410e+03 -2.202774769 );
        midCpCoeffs     	( 4.078323210e+04 -8.009186040e+02 8.214702010 -1.269714457e-02 1.753605076e-05 -1.202860270e-08 3.368093490e-12 2.682484665e+03 -3.043788844e+01 );
	lowCpCoeffs     	( 181.9135344883896 27.079531981481814 1.3104682284562241 0.011220776470717864 1.611217017433592e-05 -1.9240810285965655e-07 3.0193152336728514e-10 -947.6966125079408 5.383975661362266 );
    }
    transport
    {
        Tlow			20.4;
        Thigh			6000;
        Tcommon			1000;
        highMuKappaCoeffs	( 0.70504381 0.36287686e+02 -0.72255550e+04 0.41921607 0.74368397 -0.54941898e+03 0.25676376e+06 0.35553997e+01 );
        lowMuKappaCoeffs	( 0.6756835522136462 -2.871663879485968 -51.92244186666171 0.6527632646934771 0.6999799625099263 -26.239569737479016 308.1554996341592 3.588781793251602 );
    }
    elements
    {
        H               	2;
    }
    equationOfState
    {
	Tc  			33.19;
	Vc  			64.1e-03;
	Zc  			0.305;
	Pc  			13.13e05;
	omega  			-0.216;
    }
}

N2
{
    specie
    {
        molWeight       	28.01340;
    }
    thermodynamics
    {
        Tlow            	20;
        Thigh           	6000;
	Tcommon1		300;
        Tcommon2        	1000;
        highCpCoeffs		( 5.877124060e+05 -2.239249073e+03 6.066949220 -6.139685500e-04 1.491806679e-07 -1.923105485e-11 1.061954386e-15 1.283210415e+04 -1.586640027e+01 );
        midCpCoeffs     	( 2.210371497e+04 -3.818461820e+02 6.082738360 -8.530914410e-03 1.384646189e-05 -9.625793620e-09 2.519705809e-12 7.108460860e+02 -1.076003744e+01 );
	lowCpCoeffs     	( 1.3915354401621036 -0.16209310172173885 3.5066025887212535 -0.00011438881321350624 9.974493397669226e-07 -3.8988785307732025e-09 5.764382510995432e-12 -1043.3066964252632 3.0742897156394626 );
    }
    transport
    {
        Tlow            	77.3;
        Thigh			6000;
        Tcommon         	1000;
        highMuKappaCoeffs	( 0.65060585 0.28517449e+02 -0.16690236e+05 0.15223271e+01 0.65147781 -0.15059801e+03 -0.13746760e+05 0.21801632e+01 );
        lowMuKappaCoeffs	( 0.570825726949261 -73.15782924390622 1731.509463097786 2.1561587209523765 0.795646255032684 -1.2864274422960777 -881.7940891215968 1.0196220007343342 );
    }
    elements
    {
        N               	2;
    }
    equationOfState
    {
	Tc  			126.2;
	Vc  			89.2e-03;
	Zc  			0.289;
	Pc  			34.00e05;
	omega  			0.038;
    }
}

// ************************************************************************* //
